FoamFile
{
    version     2.0;
    format      ascii;
    class       dictionary;
    object      momentumTransport;
}
simulationType LES;
LES
{
    model           WALE;
    turbulence      on;
    printCoeffs     on;
    delta           cubeRootVol;
    cubeRootVolCoeffs { deltaCoeff 1; }
}
